@<TRIPOS>MOLECULE
Cpptraj Generated mol2 file.
   30    31     1     0     0
SMALL
USER_CHARGES


@<TRIPOS>ATOM
      1 C5         -1.5142   -1.6145    1.0612 CM         1 PSU     -0.124861
      2 C6         -0.5023   -2.2725    1.6214 CM         1 PSU      0.098003
      3 H6          0.4600   -2.3327    1.1512 H4         1 PSU      0.179196
      4 N1         -0.6876   -2.9146    2.8685 NA         1 PSU     -0.525522
      5 H1          0.0675   -3.4076    3.2909 H          1 PSU      0.378889
      6 C2         -1.8608   -2.9140    3.5748 C          1 PSU      0.653238
      7 O2         -1.9922   -3.4633    4.6266 O          1 PSU     -0.597291
      8 N3         -2.8690   -2.2223    2.9516 NA         1 PSU     -0.597203
      9 H3         -3.7420   -2.1994    3.4343 H          1 PSU      0.376293
     10 C4         -2.8149   -1.5554    1.7374 C          1 PSU      0.631892
     11 O4         -3.7816   -0.9905    1.3127 O          1 PSU     -0.577525
     12 P           4.0826   -1.0818    0.7679 P          1 PSU      1.166744
     13 OP1         4.5674   -1.5549   -0.5513 O2         1 PSU     -0.775638
     14 OP2         4.3561   -1.9715    1.9134 O2         1 PSU     -0.775638
     15 O5'         2.5213   -0.7708    0.6782 OS         1 PSU     -0.498667
     16 C5'         2.2190   -0.2100   -0.6020 CI         1 PSU      0.056340
     17 H5'         2.4720   -0.9170   -1.3870 H1         1 PSU      0.068557
     18 H5''        2.7720    0.7100   -0.7890 H1         1 PSU      0.068557
     19 C4'         0.7380    0.0850   -0.6870 CT         1 PSU      0.107531
     20 H4'         0.5600    0.6830   -1.5780 H1         1 PSU      0.118537
     21 O4'         0.0130   -1.1130   -0.7460 OS         1 PSU     -0.351365
     22 C1'        -1.3200   -0.9150   -0.2970 CT         1 PSU     -0.006942
     23 C3'         0.1260    0.8000    0.5140 CT         1 PSU      0.204158
     24 H3'         0.4810    0.3360    1.4260 H1         1 PSU      0.062095
     25 C2'        -1.3540    0.4910    0.3200 CT         1 PSU      0.067649
     26 H2'        -1.9060    0.5170    1.2550 H1         1 PSU      0.098141
     27 O2'        -1.9260    1.3760   -0.6030 OH         1 PSU     -0.607956
     28 O3'         0.3360    2.1860    0.5400 OS         1 PSU     -0.518134
     29 H1'        -1.9850   -0.9260   -1.1520 H2         1 PSU      0.198269
     30 HO2'       -1.6610    2.2580   -0.3740 HO         1 PSU      0.422653
@<TRIPOS>BOND
    1     1     2 1
    2     1    10 1
    3     2     4 1
    4     4     6 1
    5     6     7 1
    6     6     8 1
    7     8    10 1
    8    10    11 1
    9    12    15 1
   10    12    13 1
   11    12    14 1
   12    16    19 1
   13    19    21 1
   14    19    23 1
   15    21    22 1
   16    22    25 1
   17    23    25 1
   18    23    28 1
   19    25    27 1
   20    15    16 1
   21     1    22 1
   22     2     3 1
   23     4     5 1
   24     8     9 1
   25    16    17 1
   26    16    18 1
   27    19    20 1
   28    22    29 1
   29    23    24 1
   30    25    26 1
   31    27    30 1
@<TRIPOS>SUBSTRUCTURE
      1 PSU               1 ****               0 ****  **** 
