@<TRIPOS>MOLECULE
Cpptraj Generated mol2 file.
   19    19     1     0     0
SMALL
USER_CHARGES


@<TRIPOS>ATOM
      1 P           4.0826   -1.0818    0.7679 P          1 PSU      1.166744
      2 OP1         4.5674   -1.5549   -0.5513 O2         1 PSU     -0.775638
      3 OP2         4.3561   -1.9715    1.9134 O2         1 PSU     -0.775638
      4 O5'         2.5213   -0.7708    0.6782 OS         1 PSU     -0.498667
      5 C5'         2.2190   -0.2100   -0.6020 CI         1 PSU      0.056340
      6 H5'         2.4720   -0.9170   -1.3870 H1         1 PSU      0.068557
      7 H5''        2.7720    0.7100   -0.7890 H1         1 PSU      0.068557
      8 C4'         0.7380    0.0850   -0.6870 CT         1 PSU      0.107531
      9 H4'         0.5600    0.6830   -1.5780 H1         1 PSU      0.118537
     10 O4'         0.0130   -1.1130   -0.7460 OS         1 PSU     -0.351365
     11 C1'        -1.3200   -0.9150   -0.2970 CT         1 PSU     -0.006942
     12 C3'         0.1260    0.8000    0.5140 CT         1 PSU      0.204158
     13 H3'         0.4810    0.3360    1.4260 H1         1 PSU      0.062095
     14 C2'        -1.3540    0.4910    0.3200 CT         1 PSU      0.067649
     15 H2'        -1.9060    0.5170    1.2550 H1         1 PSU      0.098141
     16 O2'        -1.9260    1.3760   -0.6030 OH         1 PSU     -0.607956
     17 O3'         0.3360    2.1860    0.5400 OS         1 PSU     -0.518134
     18 H1'        -1.9850   -0.9260   -1.1520 H2         1 PSU      0.198269
     19 HO2'       -1.6610    2.2580   -0.3740 HO         1 PSU      0.422653
@<TRIPOS>BOND
    1     1     4 1
    2     1     2 1
    3     1     3 1
    4     5     8 1
    5     8    10 1
    6     8    12 1
    7    10    11 1
    8    11    14 1
    9    12    14 1
   10    12    17 1
   11    14    16 1
   12     4     5 1
   13     5     6 1
   14     5     7 1
   15     8     9 1
   16    11    18 1
   17    12    13 1
   18    14    15 1
   19    16    19 1
@<TRIPOS>SUBSTRUCTURE
      1 PSU               1 ****               0 ****  **** 
