@<TRIPOS>MOLECULE
Cpptraj Generated mol2 file.
   30    31     1     0     0
SMALL
USER_CHARGES


@<TRIPOS>ATOM
      1 C5         -1.5258   -1.5798    1.2227 CM         1 PSU     -0.124861
      2 C6         -0.4736   -2.0369    1.9471 CM         1 PSU      0.098003
      3 H6          0.5528   -1.8144    1.6771 H4         1 PSU      0.179196
      4 N1         -0.6822   -2.8169    3.0691 NA         1 PSU     -0.525522
      5 H1          0.0841   -3.1760    3.6212 H          1 PSU      0.378889
      6 C2         -1.9302   -3.1688    3.5228 C          1 PSU      0.653238
      7 O2         -2.0990   -3.8588    4.5192 O          1 PSU     -0.597291
      8 N3         -2.9736   -2.6869    2.7835 NA         1 PSU     -0.597203
      9 H3         -3.8968   -2.9254    3.0938 H          1 PSU      0.376293
     10 C4         -2.8779   -1.9072    1.6540 C          1 PSU      0.631892
     11 O4         -3.9214   -1.5552    1.1053 O          1 PSU     -0.577525
     12 P           4.1552   -1.2667    0.6626 P          1 PSU      1.166744
     13 OP1         4.4702   -2.3143   -0.3507 O2         1 PSU     -0.775638
     14 OP2         4.2483   -1.6529    2.0997 O2         1 PSU     -0.775638
     15 O5'         2.6170   -0.8352    0.4180 OS         1 PSU     -0.498667
     16 C5'         2.2021   -0.2373   -0.8056 CI         1 PSU      0.056340
     17 H5'         2.3934   -0.9198   -1.6360 H1         1 PSU      0.068557
     18 H5''        2.7713    0.6789   -0.9762 H1         1 PSU      0.068557
     19 C4'         0.7053    0.1145   -0.7992 CT         1 PSU      0.107531
     20 H4'         0.4582    0.6121   -1.7388 H1         1 PSU      0.118537
     21 O4'        -0.1127   -1.0450   -0.6697 OS         1 PSU     -0.351365
     22 C1'        -1.3201   -0.6896    0.0021 CT         1 PSU     -0.006942
     23 C3'         0.2968    1.0394    0.3517 CT         1 PSU      0.204158
     24 H3'         0.7385    0.6847    1.2851 H1         1 PSU      0.062095
     25 C2'        -1.2186    0.7944    0.3902 CT         1 PSU      0.067649
     26 H2'        -1.6096    0.9707    1.3959 H1         1 PSU      0.098141
     27 O2'        -1.9364    1.5634   -0.5787 OH         1 PSU     -0.607956
     28 O3'         0.6343    2.4120    0.1443 OS         1 PSU     -0.518134
     29 H1'        -2.1619   -0.7993   -0.6884 H2         1 PSU      0.198269
     30 HO2'       -1.7323    2.5116   -0.4433 HO         1 PSU      0.422653
@<TRIPOS>BOND
    1     1     2 1
    2     1    10 1
    3     1    22 1
    4     2     4 1
    5     4     6 1
    6     6     7 1
    7     6     8 1
    8     8    10 1
    9    10    11 1
   10    12    15 1
   11    12    13 1
   12    12    14 1
   13    15    16 1
   14    16    19 1
   15    19    21 1
   16    19    23 1
   17    21    22 1
   18    22    25 1
   19    23    25 1
   20    23    28 1
   21    25    27 1
   22     2     3 1
   23     4     5 1
   24     8     9 1
   25    16    17 1
   26    16    18 1
   27    19    20 1
   28    22    29 1
   29    23    24 1
   30    25    26 1
   31    27    30 1
@<TRIPOS>SUBSTRUCTURE
      1 PSU               1 ****               0 ****  **** 
