@<TRIPOS>MOLECULE
Cpptraj Generated mol2 file.
   15    15     1     0     0
SMALL
USER_CHARGES


@<TRIPOS>ATOM
      1 C5'         2.2190   -0.2100   -0.6020 CI         1 RC3      0.056340
      2 H5'         2.4720   -0.9170   -1.3870 H1         1 RC3      0.068557
      3 H5''        2.7720    0.7100   -0.7890 H1         1 RC3      0.068557
      4 C4'         0.7380    0.0850   -0.6870 CT         1 RC3      0.107531
      5 H4'         0.5600    0.6830   -1.5780 H1         1 RC3      0.118537
      6 O4'         0.0130   -1.1130   -0.7460 OS         1 RC3     -0.351365
      7 C1'        -1.3200   -0.9150   -0.2970 CT         1 RC3     -0.006942
      8 C3'         0.1260    0.8000    0.5140 CT         1 RC3      0.204158
      9 H3'         0.4810    0.3360    1.4260 H1         1 RC3      0.062095
     10 C2'        -1.3540    0.4910    0.3200 CT         1 RC3      0.067649
     11 H2'        -1.9060    0.5170    1.2550 H1         1 RC3      0.098141
     12 O2'        -1.9260    1.3760   -0.6030 OH         1 RC3     -0.607956
     13 O3'         0.3360    2.1860    0.5400 OS         1 RC3     -0.518134
     14 H1'        -1.9850   -0.9260   -1.1520 H2         1 RC3      0.198269
     15 HO2'       -1.6610    2.2580   -0.3740 HO         1 RC3      0.422653
@<TRIPOS>BOND
    1     1     4 1
    2     4     6 1
    3     4     8 1
    4     6     7 1
    5     7    10 1
    6     8    10 1
    7     8    13 1
    8    10    12 1
    9     1     2 1
   10     1     3 1
   11     4     5 1
   12     7    14 1
   13     8     9 1
   14    10    11 1
   15    12    15 1
@<TRIPOS>SUBSTRUCTURE
      1 RC3               1 ****               0 ****  **** 
