@<TRIPOS>MOLECULE
Cpptraj Generated mol2 file.
    4     3     1     0     0
SMALL
USER_CHARGES


@<TRIPOS>ATOM
      1 P          -0.8080   -8.8730   -2.0800 P          1 RPO      1.166744
      2 OP1        -2.0290   -8.5830   -1.2900 O2         1 RPO     -0.775638
      3 OP2        -0.1960  -10.1980   -1.8600 O2         1 RPO     -0.775638
      4 O5'         0.2700   -7.7250   -1.8300 OS         1 RPO     -0.498667
@<TRIPOS>BOND
    1     1     4 1
    2     1     2 1
    3     1     3 1
@<TRIPOS>SUBSTRUCTURE
      1 RPO               1 ****               0 ****  **** 
