@<TRIPOS>MOLECULE
Cpptraj Generated mol2 file.
   11    11     1     0     0
SMALL
USER_CHARGES


@<TRIPOS>ATOM
      1 C5         -0.5620   -0.1140    0.1350 CM         1 PUU     -0.124861
      2 C6          0.0860   -1.2630   -0.0400 CM         1 PUU      0.098003
      3 H6         -0.4340   -2.1990   -0.1050 H4         1 PUU      0.179196
      4 N1          1.4540   -1.3370   -0.1480 NA         1 PUU     -0.525522
      5 H1          1.9110   -2.2120   -0.2790 H          1 PUU      0.378889
      6 C2          2.2770   -0.2440   -0.0900 C          1 PUU      0.653238
      7 O2          3.4650   -0.3130   -0.1850 O          1 PUU     -0.597291
      8 N3          1.6000    0.9360    0.0910 NA         1 PUU     -0.597203
      9 H3          2.1650    1.7570    0.1400 H          1 PUU      0.376293
     10 C4          0.2310    1.1180    0.2120 C          1 PUU      0.631892
     11 O4         -0.2230    2.2150    0.3680 O          1 PUU     -0.577525
@<TRIPOS>BOND
    1     1     2 1
    2     1    10 1
    3     2     4 1
    4     4     6 1
    5     6     7 1
    6     6     8 1
    7     8    10 1
    8    10    11 1
    9     2     3 1
   10     4     5 1
   11     8     9 1
@<TRIPOS>SUBSTRUCTURE
      1 PUU               1 ****               0 ****  **** 
